*SPEF "IEEE 1481-1998"
*DESIGN "TOP"
*DATE "Wed Jun 14 15:54:39 2023"
*VENDOR "Cadence Design Systems, Inc."
*PROGRAM "Innovus"
*VERSION "16.10-p004_1"
*DESIGN_FLOW "PIN_CAP NONE" "NAME_SCOPE LOCAL"
*DIVIDER /
*DELIMITER :
*BUS_DELIMITER []
*T_UNIT 1 NS
*C_UNIT 1 PF
*R_UNIT 1 OHM
*L_UNIT 1 HENRY

// MMMC spef file for corner 'rcworst125'

*NAME_MAP

*1 A[3]
*2 alu_inst/n_28
*3 alu_inst/n_4
*4 alu_inst/n_38
*5 alu_inst/FE_OFN0_n_40
*6 alu_inst/n_3
*7 A[0]
*8 alu_inst/n_37
*9 A[2]
*10 alu_inst/n_39
*11 B[3]
*12 clk
*13 H[0]
*14 alu_inst/n_6
*15 alu_inst/n_35
*16 alu_inst/n_5
*17 B[1]
*18 alu_inst/n_42
*19 B[2]
*20 alu_inst/n_7
*21 H[1]
*22 alu_inst/n_48
*23 alu_inst/n_30
*24 alu_inst/n_46
*25 alu_inst/n_47
*26 alu_inst/n_54
*27 alu_inst/n_36
*28 B[0]
*29 alu_inst/n_51
*30 alu_inst/n_22
*31 alu_inst/n_21
*32 S[0]
*33 A[1]
*34 S[1]
*35 alu_inst/n_77
*36 alu_inst/n_11
*37 shifter_inst/n_0
*38 alu_inst/n_12
*39 Cin
*40 alu_inst/n_27
*41 alu_inst/n_88
*42 alu_inst/n_44
*43 alu_inst/n_66
*44 alu_inst/n_10
*45 alu_inst/n_29
*46 alu_inst/n_2
*47 alu_inst/n_25
*48 alu_inst/n_103
*49 alu_inst/n_100
*50 F[1]
*51 alu_inst/n_95
*52 alu_inst/n_9
*53 alu_inst/n_94
*54 alu_inst/n_43
*55 alu_inst/n_8
*56 alu_inst/n_23
*57 S[2]
*58 alu_inst/n_71
*59 alu_inst/n_34
*60 alu_inst/n_24
*61 alu_inst/n_78
*62 shifter_inst/n_3
*63 alu_inst/n_13
*64 alu_inst/n_32
*65 alu_inst/n_69
*66 alu_inst/n_0
*67 alu_inst/n_41
*68 shifter_inst/n_1
*69 alu_inst/n_52
*70 alu_inst/n_60
*71 alu_inst/n_81
*72 F[2]
*73 alu_inst/n_80
*74 alu_inst/n_93
*75 alu_inst/n_115
*76 alu_inst/n_65
*77 F[0]
*78 alu_inst/n_89
*79 alu_inst/n_91
*80 alu_inst/n_55
*81 alu_inst/n_116
*82 alu_inst/n_72
*83 shifter_inst/n_2
*84 alu_inst/n_73
*85 alu_inst/n_1
*86 alu_inst/n_122
*87 alu_inst/FE_OFN4_n_104
*88 alu_inst/n_84
*89 alu_inst/n_15
*90 alu_inst/n_16
*91 alu_inst/FE_OFN3_n_90
*92 alu_inst/n_130
*93 alu_inst/n_14
*94 alu_inst/n_110
*95 shifter_inst/n_4
*96 alu_inst/n_118
*97 alu_inst/n_50
*98 alu_inst/n_111
*99 alu_inst/n_17
*100 alu_inst/n_18
*101 Cout
*102 O[0]
*103 alu_inst/FE_PHN5_reset
*104 alu_inst/n_26
*105 alu_inst/n_92
*106 alu_inst/n_133
*107 alu_inst/n_107
*108 FE_ECON6_reset
*109 alu_inst/n_75
*110 reset
*111 shifter_inst/n_7
*112 alu_inst/n_109
*113 alu_inst/n_67
*114 alu_inst/n_83
*115 alu_inst/n_76
*116 alu_inst/n_61
*117 alu_inst/n_108
*118 alu_inst/n_45
*119 shifter_inst/n_5
*120 alu_inst/n_129
*121 alu_inst/n_106
*122 alu_inst/n_90
*123 alu_inst/n_87
*124 alu_inst/n_68
*125 O[3]
*126 alu_inst/n_128
*127 shifter_inst/n_6
*128 alu_inst/n_86
*129 O[2]
*130 O[1]
*131 alu_inst/n_64
*132 alu_inst/n_19
*133 alu_inst/n_20
*134 alu_inst/n_153
*135 alu_inst/n_85
*136 alu_inst/n_79
*137 alu_inst/n_59
*138 F[3]
*139 alu_inst/n_96
*140 alu_inst/n_117
*141 alu_inst/n_114
*142 alu_inst/n_105
*143 alu_inst/n_131
*144 alu_inst/n_104
*145 alu_inst/n_56
*146 alu_inst/n_112
*147 alu_inst/n_113
*148 alu_inst/n_101
*149 alu_inst/n_121
*150 alu_inst/n_120
*151 alu_inst/n_31
*152 alu_inst/n_82
*153 alu_inst/n_125
*154 alu_inst/n_63
*155 alu_inst/n_57
*156 alu_inst/n_74
*157 alu_inst/n_70
*158 alu_inst/n_98
*159 alu_inst/n_126
*160 alu_inst/n_124
*161 alu_inst/n_102
*162 shifter_inst/n_8
*163 alu_inst/n_127
*164 alu_inst/n_58
*165 alu_inst/n_97
*166 alu_inst/n_99
*167 alu_inst/n_40
*168 alu_inst/n_132
*169 alu_inst/n_62
*170 alu_inst/n_53
*171 alu_inst/n_119
*172 alu_inst/n_33
*173 alu_inst/n_49
*174 FE_ECOC6_reset
*175 alu_inst/FE_PHC5_reset
*176 alu_inst/FE_OFC4_n_104
*177 alu_inst/FE_OFC3_n_90
*178 alu_inst/FE_OFC0_n_40
*179 alu_inst/Cout_reg
*180 alu_inst/g36167837
*181 alu_inst/F_reg\[3\]
*182 alu_inst/g36187557
*183 alu_inst/g36197654
*184 alu_inst/F_reg\[2\]
*185 alu_inst/g36218867
*186 alu_inst/g36221377
*187 alu_inst/g36233717
*188 alu_inst/g36244599
*189 alu_inst/g36253779
*190 alu_inst/g36262007
*191 alu_inst/g36271237
*192 alu_inst/F_reg\[1\]
*193 alu_inst/g36301297
*194 alu_inst/g36312006
*195 alu_inst/g36322833
*196 alu_inst/g36337547
*197 alu_inst/g36347765
*198 alu_inst/g36359867
*199 alu_inst/g3636
*200 alu_inst/g36373377
*201 alu_inst/g36389719
*202 alu_inst/g36391591
*203 alu_inst/g36406789
*204 alu_inst/F_reg\[0\]
*205 alu_inst/g36425927
*206 alu_inst/g36432001
*207 alu_inst/g36441122
*208 alu_inst/g36452005
*209 alu_inst/g36469771
*210 alu_inst/g36473457
*211 alu_inst/g36481279
*212 alu_inst/g36496179
*213 alu_inst/g36507837
*214 alu_inst/g36517557
*215 alu_inst/g36527654
*216 alu_inst/g36548867
*217 alu_inst/g36551377
*218 alu_inst/g36563717
*219 alu_inst/g36574599
*220 alu_inst/g36583779
*221 alu_inst/g36602007
*222 alu_inst/g36611237
*223 alu_inst/g36621297
*224 alu_inst/g36632006
*225 alu_inst/g36642833
*226 alu_inst/g36657547
*227 alu_inst/g36667765
*228 alu_inst/g36679867
*229 alu_inst/g36683377
*230 alu_inst/g36699719
*231 alu_inst/g36701591
*232 alu_inst/g36716789
*233 alu_inst/g36725927
*234 alu_inst/g3673
*235 alu_inst/g3674
*236 alu_inst/g36752001
*237 alu_inst/g36761122
*238 alu_inst/g36772005
*239 alu_inst/g36789771
*240 alu_inst/g36793457
*241 alu_inst/g36801279
*242 alu_inst/g3681
*243 alu_inst/g3682
*244 alu_inst/g36836179
*245 alu_inst/g36847837
*246 alu_inst/g36857557
*247 alu_inst/g36867654
*248 alu_inst/g36878867
*249 alu_inst/g36881377
*250 alu_inst/g3689
*251 alu_inst/g36903717
*252 alu_inst/g36914599
*253 alu_inst/g36923779
*254 alu_inst/g36932007
*255 alu_inst/g36941237
*256 alu_inst/g36951297
*257 alu_inst/g36962006
*258 alu_inst/g36972833
*259 alu_inst/g36987547
*260 alu_inst/g36997765
*261 alu_inst/g37009867
*262 alu_inst/g37013377
*263 alu_inst/g3702
*264 alu_inst/g3703
*265 alu_inst/g37049719
*266 alu_inst/g37051591
*267 alu_inst/g37066789
*268 alu_inst/g3707
*269 alu_inst/g3708
*270 alu_inst/g3709
*271 alu_inst/g3710
*272 alu_inst/g3711
*273 alu_inst/g37135927
*274 alu_inst/g37142001
*275 alu_inst/g37151122
*276 alu_inst/g37162005
*277 alu_inst/g3717
*278 alu_inst/g37189771
*279 alu_inst/g37193457
*280 alu_inst/g3720
*281 alu_inst/g3721
*282 alu_inst/g3722
*283 alu_inst/g3723
*284 alu_inst/g37241279
*285 alu_inst/g37256179
*286 alu_inst/g37277837
*287 alu_inst/g37287557
*288 alu_inst/g37297654
*289 alu_inst/g37308867
*290 alu_inst/g37311377
*291 alu_inst/g37323717
*292 alu_inst/g37334599
*293 alu_inst/g37343779
*294 alu_inst/g37352007
*295 alu_inst/g37361237
*296 alu_inst/g37371297
*297 alu_inst/g37382006
*298 alu_inst/g37402833
*299 alu_inst/g37417547
*300 alu_inst/g37427765
*301 alu_inst/g37439867
*302 alu_inst/g37443377
*303 alu_inst/g37459719
*304 alu_inst/g37461591
*305 alu_inst/g37476789
*306 alu_inst/g3748
*307 alu_inst/g3749
*308 alu_inst/g3750
*309 alu_inst/g3751
*310 alu_inst/g3752
*311 alu_inst/g3754
*312 alu_inst/g3755
*313 alu_inst/g3756
*314 alu_inst/g25927
*315 alu_inst/g37572001
*316 alu_inst/g37581122
*317 alu_inst/g37592005
*318 shifter_inst/g2469771
*319 shifter_inst/g2473457
*320 shifter_inst/g2481279
*321 shifter_inst/g2496179
*322 shifter_inst/g2507837
*323 shifter_inst/g2517557
*324 shifter_inst/g2527654
*325 shifter_inst/g253
*326 shifter_inst/g2548867
*327 shifter_inst/g2551377
*328 shifter_inst/g256
*329 shifter_inst/g257
*330 shifter_inst/g258


*PORTS

*1 I *C 0 10
*9 I *C 0 8
*33 I *C 0 6
*7 I *C 0 4
*11 I *C 0 18
*19 I *C 0 16
*17 I *C 0 14
*28 I *C 0 12
*57 I *C 11 0
*34 I *C 13 0
*32 I *C 15 0
*39 I *C 0 20
*12 I *C 13 26.03
*110 I *C 17 0
*21 I *C 7 0
*13 I *C 9 0
*125 O *C 26 9
*129 O *C 26 11
*130 O *C 26 13
*102 O *C 26 15
*101 O *C 26 7


*D_NET *1 0.00422955

*CONN
*P *1 I *C 0 10 *L 0
*I *316:B I *C 12.7 19.475 *L 0.00021 *D MXI2XL
*I *309:A I *C 15.3 19.095 *L 0.000395 *D INVX1
*I *284:B I *C 4.025 7.06 *L 0.000392 *D NOR4X1
*I *257:B I *C 14.16 7.28 *L 0.000392 *D NAND4X1
*I *249:B0 I *C 4.9 14.155 *L 0.00039 *D AOI221X1
*I *219:A1 I *C 8.04 19.31 *L 0.000391 *D OAI21X1
*I *208:A1N I *C 9.7 19.285 *L 0.00021 *D OAI2BB1X1
*I *203:B0 I *C 18.165 15.745 *L 0.000389 *D AOI22X1
*I *202:B0 I *C 11.495 16.11 *L 0.000391 *D AOI222X1

*CAP
1 *203:B0 7.20024e-05
2 *257:B 0.000391483
3 *316:B 3.20077e-05
4 *202:B0 4.70877e-06
5 *208:A1N 3.83854e-05
6 *219:A1 0.000108659
7 *249:B0 6.4373e-06
8 *284:B 0.000164568
9 *1 4.82202e-05
10 *1:10 0.000298202
11 *1:11 0.000362337
12 *1:12 0.000226855
13 *1:13 0.000238419
14 *1:14 0.000725448
15 *1:15 0.000295997
16 *1:16 0.000210166
17 *1:17 0.000536859
18 *1:18 0.000468791

*RES
1 *1:18 *1 7.91728
2 *284:B *1:18 23.7819
3 *1:17 *1:18 18.8923
4 *249:B0 *1:17 6.66988
5 *219:A1 *1:16 14.984
6 *208:A1N *1:16 13.7216
7 *1:16 *1:15 1.11127
8 *1:14 *1:17 11.7688
9 *1:13 *1:14 7.62618
10 *1:15 *1:13 23.4606
11 *202:B0 *1:13 6.66988
12 *316:B *1:12 13.5779
13 *1:12 *1:15 0.959992
14 *257:B *1:14 34.3639
15 *1:11 *1:12 15.7617
16 *309:A *1:11 0.5
17 *203:B0 *1:10 7.57706
18 *1:10 *1:11 23.6081
*END

*D_NET *2 0.00351989

*CONN
*I *290:Y O *C 10.155 5.7 *L 0 *D NOR2X2
*I *283:A I *C 16.7 15.675 *L 0.000395 *D INVX1
*I *267:B I *C 12.975 12.675 *L 0.000392 *D NOR2X1
*I *265:B I *C 18.005 7.28 *L 0.000212 *D NOR2XL
*I *249:C0 I *C 5.1 14.345 *L 0.000392 *D AOI221X1
*I *247:C0 I *C 4.7 5.415 *L 0.000392 *D AOI221X1
*I *246:C0 I *C 4.5 15.675 *L 0.000392 *D AOI221X1
*I *244:C0 I *C 4.7 4.085 *L 0.000392 *D AOI221X1
*I *222:A0 I *C 14.1 12.255 *L 0.000391 *D AOI21X1
*I *203:A0 I *C 17.3 15.675 *L 0.000391 *D AOI22X1

*CAP
1 *265:B 0.000374556
2 *203:A0 4.41074e-05
3 *283:A 5.126e-06
4 *222:A0 1.21593e-05
5 *267:B 1.89543e-05
6 *290:Y 0.000542462
7 *249:C0 6.3777e-06
8 *247:C0 2.86102e-05
9 *244:C0 9.62019e-05
10 *246:C0 0.000105679
11 *2:10 0.000301301
12 *2:11 0.000323415
13 *2:12 0.000348032
14 *2:13 0.000579417
15 *2:14 0.000406146
16 *2:15 0.000134408
17 *2:16 0.00019294

*RES
1 *246:C0 *2:16 21.2722
2 *244:C0 *2:15 27.84
3 *247:C0 *2:15 13.5931
4 *2:15 *2:14 0.204086
5 *2:16 *2:13 14.882
6 *249:C0 *2:16 6.66988
7 *2:14 *290:Y 16.3145
8 *2:13 *2:14 12.4189
9 *2:12 *2:13 25.5547
10 *267:B *2:12 13.389
11 *2:11 *2:12 7.44855
12 *222:A0 *2:11 6.79469
13 *2:10 *2:11 17.6299
14 *283:A *2:10 6.66988
15 *203:A0 *2:10 20.4633
16 *265:B *290:Y 34.0313
*END

*D_NET *5 0.00302529

*CONN
*I *271:A I *C 9.1 12.255 *L 0.000395 *D INVX1
*I *254:C I *C 12.76 7.165 *L 0.000392 *D NOR3X1
*I *253:A I *C 11.9 14.345 *L 0.000392 *D NOR2X1
*I *249:A1 I *C 4.54 14.265 *L 0.000392 *D AOI221X1
*I *247:A1 I *C 4.14 5.495 *L 0.000392 *D AOI221X1
*I *246:A1 I *C 3.94 15.755 *L 0.000392 *D AOI221X1
*I *244:A1 I *C 4.14 4.005 *L 0.000392 *D AOI221X1
*I *202:B1 I *C 11.16 16.11 *L 0.000392 *D AOI222X1
*I *178:Y O *C 5.54 3.31 *L 0 *D BUFX3

*CAP
1 *254:C 0.00019455
2 *253:A 4.69685e-05
3 *202:B1 3.20673e-05
4 *271:A 3.77893e-05
5 *178:Y 4.35114e-06
6 *249:A1 7.75456e-05
7 *247:A1 8.41618e-05
8 *244:A1 6.6936e-05
9 *246:A1 3.20077e-05
10 *5:9 8.51154e-05
11 *5:10 0.000142932
12 *5:11 0.000623584
13 *5:12 0.000296712
14 *5:13 0.000421882
15 *5:14 0.000131011
16 *5:15 0.000409365
17 *5:16 0.000338316

*RES
1 *246:A1 *5:16 20.1987
2 *5:16 *5:15 11.1735
3 *244:A1 *5:14 20.8111
4 *247:A1 *5:13 20.8111
5 *249:A1 *5:16 21.2722
6 *5:14 *178:Y 6.66988
7 *5:13 *5:14 0.907183
8 *271:A *5:12 20.2063
9 *5:11 *5:13 11.2774
10 *5:12 *5:11 10.4988
11 *5:15 *5:12 8.77523
12 *5:10 *5:15 1.26243
13 *202:B1 *5:10 13.5779
14 *5:9 *5:10 7.22551
15 *253:A *5:9 7.36165
16 *254:C *5:11 15.8609
*END

*D_NET *6 0.0023526

*CONN
*I *313:Y O *C 3.73 17.14 *L 0 *D INVX1
*I *300:B I *C 3.775 19.515 *L 0.000392 *D NOR2X1
*I *298:B I *C 3.5 21.185 *L 0.000392 *D NAND2X1
*I *258:A0 I *C 10.5 17.765 *L 0.000211 *D OA21X1
*I *256:B0 I *C 10.565 21.115 *L 0.000389 *D AOI22X1
*I *225:B0 I *C 17.3 20.805 *L 0.000392 *D OAI22X1
*I *224:B1 I *C 7.1 19.475 *L 0.000392 *D OAI22X1
*I *215:B0 I *C 15.7 16.055 *L 0.000392 *D OAI22X1
*I *214:C0 I *C 8.9 17.955 *L 0.000392 *D OAI222X1

*CAP
1 *225:B0 0.000221372
2 *215:B0 2.43783e-05
3 *258:A0 2.61664e-05
4 *256:B0 0.0001477
5 *214:C0 1.72853e-05
6 *224:B1 4.52995e-06
7 *300:B 5.96046e-06
8 *313:Y 6.53267e-05
9 *298:B 0.000111878
10 *6:9 0.000494897
11 *6:10 0.000195861
12 *6:11 0.000285864
13 *6:12 0.000182152
14 *6:13 0.000258923
15 *6:14 0.000310302

*RES
1 *298:B *6:14 21.9711
2 *6:14 *313:Y 7.72071
3 *300:B *6:14 6.66988
4 *224:B1 *6:13 6.66988
5 *6:13 *6:14 15.91
6 *6:12 *6:13 8.8886
7 *214:C0 *6:12 13.4343
8 *6:11 *6:10 0.188947
9 *6:10 *6:12 7.37667
10 *256:B0 *6:10 22.5649
11 *258:A0 *6:11 7.32732
12 *6:9 *6:11 11.9123
13 *215:B0 *6:9 13.5779
14 *225:B0 *6:9 31.2494
*END

*D_NET *7 0.00254595

*CONN
*P *7 I *C 0 4 *L 0
*I *311:A I *C 6.1 8.835 *L 0.000395 *D INVX1
*I *297:B I *C 5.3 8.645 *L 0.000392 *D NAND2X1
*I *284:A I *C 3.82 7.38 *L 0.000392 *D NOR4X1
*I *257:A I *C 13.94 7.25 *L 0.000393 *D NAND4X1
*I *244:B0 I *C 4.5 4.085 *L 0.00039 *D AOI221X1
*I *232:C0 I *C 15.525 9.225 *L 0.00161 *D OAI222X4
*I *220:A0 I *C 16.14 7.595 *L 0.000392 *D AOI221X1

*CAP
1 *220:A0 0.000100195
2 *232:C0 0.000109792
3 *257:A 6.31809e-06
4 *311:A 5.39422e-05
5 *297:B 4.58956e-06
6 *244:B0 2.25902e-05
7 *7 0.00012958
8 *284:A 8.9705e-05
9 *7:8 0.000154734
10 *7:9 0.00051403
11 *7:10 0.000128508
12 *7:11 9.03606e-05
13 *7:12 0.000242233
14 *7:13 0.000352383
15 *7:14 0.000546992

*RES
1 *284:A *7:14 14.5003
2 *7:13 *7 3.60203
3 *244:B0 *7:13 13.389
4 *7:12 *7:13 10.1964
5 *7:14 *7:12 6.71911
6 *7:11 *7:12 0.763535
7 *297:B *7:11 6.66988
8 *311:A *7:11 20.6599
9 *7:10 *7:9 6.71911
10 *7:9 *7:14 6.57678
11 *257:A *7:10 6.7153
12 *7:8 *7:9 0.79
13 *232:C0 *7:10 21.567
14 *220:A0 *7:8 14.5795
*END

*D_NET *8 0.00279057

*CONN
*I *272:Y O *C 13.73 16.3 *L 0 *D INVX1
*I *262:B I *C 16.5 17.955 *L 0.000392 *D NAND2X1
*I *240:A1 I *C 16.5 9.215 *L 0.000391 *D OAI22X1
*I *236:A1 I *C 7.7 9.025 *L 0.000791 *D OAI222X2
*I *233:A0 I *C 15.345 13.925 *L 0.000392 *D OAI22X1
*I *227:B1 I *C 9.5 10.735 *L 0.000391 *D OAI222X1
*I *214:A1 I *C 8.34 17.12 *L 0.000391 *D OAI222X1
*I *213:A0 I *C 14.945 17.345 *L 0.000392 *D OAI22X1

*CAP
1 *262:B 0.00013566
2 *240:A1 0.00030756
3 *233:A0 4.64916e-06
4 *213:A0 2.00868e-05
5 *272:Y 3.57032e-05
6 *227:B1 7.98702e-06
7 *214:A1 6.50287e-05
8 *236:A1 5.88894e-05
9 *8:8 0.000469506
10 *8:9 0.000164509
11 *8:10 0.000197113
12 *8:11 4.71473e-05
13 *8:12 0.000219882
14 *8:13 0.000495434
15 *8:14 0.000381768
16 *8:15 0.000179648

*RES
1 *8:15 *8:14 14.7005
2 *236:A1 *8:15 7.86436
3 *214:A1 *8:13 14.2432
4 *8:14 *8:13 11.8746
5 *8:13 *8:12 3.07667
6 *227:B1 *8:14 6.66988
7 *8:11 *272:Y 7.14612
8 *8:12 *8:11 6.71911
9 *8:10 *8:12 7.22551
10 *8:9 *8:10 0.188947
11 *213:A0 *8:9 7.08151
12 *233:A0 *8:8 6.66988
13 *8:8 *8:10 15.9025
14 *240:A1 *8:8 24.5757
15 *262:B *8:9 21.7559
*END

*D_NET *9 0.00300801

*CONN
*P *9 I *C 0 8 *L 0
*I *313:A I *C 3.5 17.765 *L 0.000395 *D INVX1
*I *291:B I *C 4.575 17.345 *L 0.000392 *D NOR2X1
*I *284:D I *C 4.405 7.32 *L 0.000392 *D NOR4X1
*I *257:C I *C 14.3 7.695 *L 0.00039 *D NAND4X1
*I *246:B0 I *C 4.3 15.865 *L 0.00039 *D AOI221X1
*I *228:B0 I *C 14.365 17.695 *L 0.000389 *D AOI22X1

*CAP
1 *257:C 9.7692e-05
2 *228:B0 0.000478625
3 *291:B 6.55651e-06
4 *284:D 3.03388e-05
5 *246:B0 1.18017e-05
6 *313:A 5.52535e-05
7 *9 1.19805e-05
8 *9:7 0.000325561
9 *9:8 0.000546336
10 *9:9 0.000600636
11 *9:10 0.000398517
12 *9:11 0.000215888
13 *9:12 7.34329e-05
14 *9:13 0.000155389

*RES
1 *9:13 *9 0.419497
2 *313:A *9:12 20.8111
3 *9:11 *9:13 3.57556
4 *246:B0 *9:10 6.83582
5 *284:D *9:11 13.5779
6 *9:10 *9:9 19.8712
7 *9:8 *9:10 0.926018
8 *9:12 *9:8 0.188947
9 *291:B *9:12 6.66988
10 *9:9 *9:11 7.22551
11 *9:7 *9:9 25.9553
12 *228:B0 *9:8 28.3402
13 *257:C *9:7 14.349
*END

*D_NET *10 0.00214863

*CONN
*I *271:Y O *C 9.33 12.88 *L 0 *D INVX1
*I *236:C1 I *C 9.96 9.065 *L 0.000793 *D OAI222X2
*I *231:A0 I *C 15.545 12.675 *L 0.000392 *D OAI22X1
*I *227:C1 I *C 10.1 10.735 *L 0.000392 *D OAI222X1
*I *225:A0 I *C 16.545 20.765 *L 0.000392 *D OAI22X1
*I *214:C1 I *C 9.1 17.575 *L 0.000392 *D OAI222X1
*I *211:A0 I *C 15.1 20.995 *L 0.000392 *D OAI221X1

*CAP
1 *225:A0 7.57575e-05
2 *231:A0 2.65241e-05
3 *211:A0 2.75373e-05
4 *227:C1 5.06639e-06
5 *236:C1 8.01086e-05
6 *271:Y 6.38962e-05
7 *214:C1 4.23193e-05
8 *10:7 0.000566959
9 *10:8 0.000375807
10 *10:9 0.000155449
11 *10:10 0.000356793
12 *10:11 0.000187695
13 *10:12 0.000184715

*RES
1 *10:12 *10:11 29.0458
2 *214:C1 *10:12 7.43341
3 *10:11 *271:Y 7.28977
4 *10:10 *271:Y 7.08151
5 *236:C1 *10:9 8.13651
6 *10:9 *10:10 1.30022
7 *227:C1 *10:9 6.66988
8 *211:A0 *10:8 13.4872
9 *10:7 *10:10 11.1187
10 *10:8 *10:7 20.0905
11 *231:A0 *10:7 13.5062
12 *225:A0 *10:8 14.2432
*END

*D_NET *11 0.00216258

*CONN
*P *11 I *C 0 18 *L 0
*I *316:S0 I *C 12.94 19.54 *L 0.000421 *D MXI2XL
*I *249:A0 I *C 4.34 14.435 *L 0.000392 *D AOI221X1
*I *230:C0 I *C 12.54 20.93 *L 0.000389 *D AOI222X1
*I *219:A0 I *C 7.825 19.15 *L 0.000391 *D OAI21X1
*I *208:A0N I *C 9.445 19.55 *L 0.000209 *D OAI2BB1X1
*I *202:A0 I *C 10.7 15.865 *L 0.000392 *D AOI222X1

*CAP
1 *316:S0 4.64916e-06
2 *230:C0 0.000100613
3 *202:A0 0.000160933
4 *208:A0N 1.66297e-05
5 *219:A0 4.76837e-06
6 *11 0.000164032
7 *249:A0 0.000180721
8 *11:7 0.000207245
9 *11:8 0.00033921
10 *11:9 0.000196457
11 *11:10 0.000275433
12 *11:11 0.000511885

*RES
1 *249:A0 *11:11 29.5712
2 *11:11 *11 3.83079
3 *11:10 *11:11 9.50098
4 *219:A0 *11:10 6.66988
5 *11:9 *11:10 8.01933
6 *208:A0N *11:9 13.389
7 *202:A0 *11:8 29.2159
8 *11:8 *11:9 1.22464
9 *230:C0 *11:7 8.40855
10 *11:7 *11:8 7.98154
11 *316:S0 *11:7 6.66988
*END

*D_NET *12 0.00217104

*CONN
*P *12 I *C 13 26.03 *L 0
*I *204:CK I *C 17.9 3.895 *L 0.00021 *D DFFRHQX1
*I *192:CK I *C 17.7 9.025 *L 0.00021 *D DFFRHQX1
*I *184:CK I *C 19.5 15.865 *L 0.00021 *D DFFRHQX1
*I *181:CK I *C 19.5 20.995 *L 0.00021 *D DFFRHQX1
*I *179:CK I *C 19.5 14.155 *L 0.00021 *D DFFRHQX1

*CAP
1 *181:CK 3.59416e-05
2 *184:CK 5.70416e-05
3 *179:CK 4.22597e-05
4 *204:CK 0.000166893
5 *192:CK 5.22733e-05
6 *12 1.29342e-05
7 *12:6 0.000561774
8 *12:7 6.69956e-05
9 *12:8 0.000195682
10 *12:9 5.06043e-05
11 *12:10 0.00018239
12 *12:11 0.000352502
13 *12:12 0.000393748

*RES
1 *12:12 *12 0.404477
2 *192:CK *12:11 20.6145
3 *204:CK *12:11 24.243
4 *12:11 *12:10 3.77977
5 *12:9 *12:10 6.71911
6 *12:10 *12:8 1.19436
7 *12:7 *12:8 6.71911
8 *12:8 *12:6 10.4988
9 *12:6 *12:12 28.2232
10 *179:CK *12:9 14.0467
11 *184:CK *12:7 14.0467
12 *181:CK *12:6 14.0467
*END

*D_NET *14 0.00162804

*CONN
*I *310:Y O *C 20.33 6.04 *L 0 *D INVX1
*I *204:RN I *C 18.9 3.895 *L 0.000617 *D DFFRHQX1
*I *192:RN I *C 18.7 9.025 *L 0.000617 *D DFFRHQX1
*I *184:RN I *C 20.5 15.865 *L 0.000617 *D DFFRHQX1
*I *181:RN I *C 20.5 20.995 *L 0.000617 *D DFFRHQX1
*I *179:RN I *C 20.5 14.155 *L 0.000617 *D DFFRHQX1

*CAP
1 *181:RN 0.000150263
2 *184:RN 4.64916e-06
3 *179:RN 5.126e-06
4 *310:Y 0.00025183
5 *204:RN 0.000120759
6 *192:RN 6.51479e-05
7 *14:6 0.000232756
8 *14:7 0.000145376
9 *14:8 0.0002473
10 *14:9 0.000143409
11 *14:10 0.000261426

*RES
1 *192:RN *14:10 14.5456
2 *204:RN *310:Y 28.5468
3 *14:9 *310:Y 8.72612
4 *14:10 *14:9 6.71911
5 *179:RN *14:8 6.66988
6 *184:RN *14:7 6.66988
7 *181:RN *14:6 9.52363
8 *14:8 *14:10 24.0352
9 *14:7 *14:8 1.19436
10 *14:6 *14:7 1.44005
*END

*D_NET *15 0.00166047

*CONN
*I *286:Y O *C 12.55 3.81 *L 0 *D OR2X1
*I *258:B0 I *C 10.9 17.765 *L 0.00021 *D OA21X1
*I *255:C0 I *C 15.185 5.605 *L 0.000392 *D OAI211X1
*I *252:B0 I *C 12.3 10.925 *L 0.00021 *D OA21X1
*I *251:B0 I *C 12.795 17.4 *L 0.000393 *D OAI21X1
*I *232:B1 I *C 13.78 9.005 *L 0.0016 *D OAI222X4

*CAP
1 *255:C0 7.67708e-05
2 *232:B1 1.32918e-05
3 *251:B0 4.22597e-05
4 *286:Y 2.48551e-05
5 *252:B0 6.4373e-06
6 *258:B0 6.46114e-05
7 *15:6 0.000316799
8 *15:7 8.49962e-05
9 *15:8 0.000289917
10 *15:9 0.000368416
11 *15:10 0.000372112

*RES
1 *258:B0 *15:10 14.1978
2 *15:10 *15:9 25.1842
3 *15:9 *15:8 14.8971
4 *252:B0 *15:9 6.66988
5 *15:7 *286:Y 7.14612
6 *251:B0 *15:10 13.8879
7 *15:8 *15:6 23.7176
8 *232:B1 *15:8 6.85894
9 *15:6 *15:7 7.52795
10 *255:C0 *15:6 14.3944
*END

*D_NET *16 0.00161028

*CONN
*I *311:Y O *C 6.33 9.46 *L 0 *D INVX1
*I *302:B I *C 4.9 11.115 *L 0.000392 *D NAND2X1
*I *285:A1N I *C 10.1 7.505 *L 0.00021 *D OAI2BB1X1
*I *241:B0 I *C 17.9 10.545 *L 0.000392 *D OAI22X1
*I *240:B0 I *C 17.1 9.215 *L 0.000392 *D OAI22X1
*I *236:C0 I *C 10.18 9.02 *L 0.000793 *D OAI222X2

*CAP
1 *241:B0 6.16312e-05
2 *240:B0 1.72853e-05
3 *285:A1N 6.53863e-05
4 *236:C0 0.000112116
5 *311:Y 4.70877e-06
6 *302:B 0.000130296
7 *16:6 0.000108898
8 *16:7 0.000421047
9 *16:8 0.000429869
10 *16:9 0.000114083
11 *16:10 0.000144958

*RES
1 *302:B *16:10 22.1642
2 *16:9 *16:10 6.76441
3 *16:10 *311:Y 6.66988
4 *236:C0 *16:9 15.8609
5 *285:A1N *16:8 7.72071
6 *16:8 *236:C0 6.66988
7 *16:7 *16:8 12.1467
8 *240:B0 *16:7 13.389
9 *16:6 *16:7 7.22551
10 *241:B0 *16:6 7.57706
*END

*D_NET *17 0.000931025

*CONN
*P *17 I *C 0 14 *L 0
*I *307:A I *C 3.5 10.925 *L 0.000395 *D INVX1
*I *301:A I *C 3.3 14.155 *L 0.00039 *D NAND2X1
*I *299:A I *C 3.7 12.255 *L 0.000392 *D NOR2X1
*I *292:A I *C 3.3 8.835 *L 0.000392 *D NOR2X1
*I *247:A0 I *C 3.94 5.325 *L 0.000392 *D AOI221X1

*CAP
1 *247:A0 0.000160694
2 *299:A 1.20997e-05
3 *307:A 4.23193e-06
4 *292:A 6.02007e-06
5 *17 2.52724e-05
6 *17:6 0.000117958
7 *17:7 0.000151336
8 *17:8 0.00011009
9 *17:9 0.00023222
10 *17:10 0.000111103

*RES
1 *17:10 *17 13.8313
2 *17:9 *17:8 1.63281
3 *17:7 *17:10 3.28064
4 *292:A *17:9 6.66988
5 *301:A *17:7 0.5
6 *17:8 *17:6 0.926018
7 *17:6 *17:7 8.23855
8 *307:A *17:8 6.66988
9 *299:A *17:6 6.90424
10 *247:A0 *17:9 23.4947
*END

*D_NET *18 0.00130618

*CONN
*I *270:Y O *C 14.53 13.72 *L 0 *D INVX1
*I *262:A I *C 16.3 17.575 *L 0.00039 *D NAND2X1
*I *245:A1 I *C 15.1 7.315 *L 0.000391 *D OAI211X1
*I *240:B1 I *C 16.9 9.215 *L 0.000392 *D OAI22X1
*I *233:B1 I *C 15.9 13.775 *L 0.000392 *D OAI22X1
*I *213:B1 I *C 15.5 17.385 *L 0.000392 *D OAI22X1

*CAP
1 *240:B1 6.67572e-05
2 *262:A 8.34465e-06
3 *270:Y 5.53131e-05
4 *233:B1 1.20401e-05
5 *213:B1 6.181e-05
6 *245:A1 6.634e-05
7 *18:6 0.000395894
8 *18:7 0.000244737
9 *18:8 0.000274658
10 *18:9 0.000120282

*RES
1 *245:A1 *18:9 7.86436
2 *18:9 *18:8 7.22551
3 *213:B1 *18:7 20.6145
4 *233:B1 *18:6 13.389
5 *18:8 *18:6 16.9306
6 *18:6 *270:Y 14.349
7 *18:7 *18:6 10.0377
8 *262:A *18:7 6.7153
9 *240:B1 *18:8 14.092
*END

*D_NET *19 0.00100362

*CONN
*P *19 I *C 0 16 *L 0
*I *308:A I *C 5.5 17.765 *L 0.000395 *D INVX1
*I *300:A I *C 3.5 19.095 *L 0.000392 *D NOR2X1
*I *298:A I *C 3.3 20.995 *L 0.00039 *D NAND2X1
*I *291:A I *C 4.3 17.765 *L 0.000392 *D NOR2X1
*I *246:A0 I *C 3.74 15.585 *L 0.000392 *D AOI221X1

*CAP
1 *308:A 6.68764e-05
2 *291:A 5.00679e-06
3 *19 9.55463e-05
4 *246:A0 2.34842e-05
5 *300:A 5.54323e-06
6 *298:A 5.62072e-05
7 *19:6 8.01086e-05
8 *19:7 0.000104904
9 *19:8 0.000218928
10 *19:9 0.000114679
11 *19:10 0.000141561
12 *19:11 9.07779e-05

*RES
1 *19:11 *19:10 0.661492
2 *298:A *19:11 7.51281
3 *19:10 *19:9 14.829
4 *300:A *19:10 6.66988
5 *246:A0 *19:8 13.5779
6 *19:8 *19 3.00491
7 *19:7 *19:8 8.35943
8 *19:9 *19:7 0.5
9 *19:6 *19:9 6.71911
10 *291:A *19:7 6.65951
11 *308:A *19:6 14.1978
*END

*D_NET *20 0.000936151

*CONN
*I *316:A I *C 11.98 19.63 *L 0.00021 *D MXI2XL
*I *309:Y O *C 15.53 19.72 *L 0 *D INVX1
*I *251:A0 I *C 12.425 17.71 *L 0.000391 *D OAI21X1
*I *230:B0 I *C 12.295 20.75 *L 0.000391 *D AOI222X1
*I *213:B0 I *C 15.7 17.575 *L 0.000392 *D OAI22X1
*I *211:B0 I *C 15.9 20.995 *L 0.00039 *D OAI221X1

*CAP
1 *211:B0 5.07832e-05
2 *213:B0 7.55787e-05
3 *309:Y 2.22921e-05
4 *251:A0 4.77433e-05
5 *230:B0 6.82473e-05
6 *316:A 6.49691e-06
7 *20:6 6.68168e-05
8 *20:7 0.000240743
9 *20:8 0.0001719
10 *20:9 8.57711e-05
11 *20:10 9.97782e-05

*RES
1 *20:10 *20:9 0.55182
2 *316:A *20:10 6.66988
3 *230:B0 *20:10 7.84922
4 *20:9 *20:8 6.71911
5 *20:8 *20:7 9.03976
6 *251:A0 *20:9 7.5959
7 *20:7 *309:Y 6.66988
8 *213:B0 *20:7 7.99286
9 *20:6 *309:Y 7.08151
10 *211:B0 *20:6 7.57706
*END

*D_NET *21 0.00192821

*CONN
*P *21 I *C 7 0 *L 0
*I *330:A I *C 20.5 5.415 *L 0.000395 *D INVX1
*I *326:B I *C 21.775 3.665 *L 0.000392 *D NOR2X1
*I *324:B1 I *C 21.14 7.24 *L 0.000392 *D AOI22X1
*I *323:B1 I *C 21.54 5.68 *L 0.000392 *D AOI22X1

*CAP
1 *326:B 7.10487e-05
2 *323:B1 4.02927e-05
3 *324:B1 0.000116825
4 *330:A 4.76837e-06
5 *21 0.000166416
6 *21:5 5.01871e-05
7 *21:6 0.000128806
8 *21:7 9.84669e-05
9 *21:8 0.000188529
10 *21:9 0.000461161
11 *21:10 0.000601709

*RES
1 *21:10 *21 11.1961
2 *21:9 *21:10 9.0127
3 *21:8 *21:9 0.600934
4 *21:7 *21:8 8.20076
5 *21:6 *21:7 0.0452995
6 *21:5 *21:6 6.71911
7 *330:A *21:7 6.66988
8 *324:B1 *21:6 21.5595
9 *323:B1 *21:5 14.0467
10 *326:B *21:8 14.3868
*END

*D_NET *22 0.00150156

*CONN
*I *273:Y O *C 12.115 5.48 *L 0 *D NOR2X1
*I *259:A1 I *C 10.1 12.065 *L 0.000392 *D AOI22X1
*I *256:A1 I *C 9.9 21.375 *L 0.000392 *D AOI22X1
*I *254:A I *C 12.34 7.26 *L 0.000392 *D NOR3X1
*I *230:A1 I *C 11.7 21.375 *L 0.000392 *D AOI222X1

*CAP
1 *254:A 4.70877e-06
2 *273:Y 4.81606e-05
3 *230:A1 6.78897e-05
4 *259:A1 3.40343e-05
5 *256:A1 2.68817e-05
6 *22:5 8.38637e-05
7 *22:6 0.000285208
8 *22:7 0.000567436
9 *22:8 0.000383377

*RES
1 *256:A1 *22:8 13.5931
2 *259:A1 *22:7 20.2063
3 *22:7 *22:6 18.2799
4 *22:8 *22:7 13.9686
5 *230:A1 *22:8 14.349
6 *22:5 *273:Y 7.65646
7 *254:A *22:6 6.66988
8 *22:6 *22:5 0.702977
*END

*D_NET *23 0.00157106

*CONN
*I *289:Y O *C 13.115 5.48 *L 0 *D NOR2X1
*I *282:A I *C 11.7 12.255 *L 0.000395 *D INVX1
*I *267:A I *C 12.7 12.255 *L 0.000392 *D NOR2X1
*I *254:B I *C 12.5 7.125 *L 0.000393 *D NOR3X1
*I *185:A0 I *C 16.34 19.005 *L 0.000392 *D AOI221X1

*CAP
1 *185:A0 0.000371993
2 *289:Y 5.19156e-05
3 *267:A 5.24521e-06
4 *254:B 2.27094e-05
5 *282:A 2.18749e-05
6 *23:5 0.000429869
7 *23:6 9.08971e-05
8 *23:7 0.00028187
9 *23:8 0.000294685

*RES
1 *282:A *23:8 13.4419
2 *23:8 *23:7 17.7168
3 *23:7 *23:6 7.07436
4 *254:B *23:7 13.4343
5 *23:5 *23:8 7.22551
6 *267:A *23:5 6.66988
7 *23:6 *289:Y 7.72071
8 *185:A0 *23:5 40.7314
*END

*D_NET *24 0.0015192

*CONN
*I *275:Y O *C 10.915 5.48 *L 0 *D NOR2X1
*I *268:A I *C 10.9 7.505 *L 0.000395 *D INVX1
*I *259:B1 I *C 10.54 12.52 *L 0.000392 *D AOI22X1
*I *256:B1 I *C 10.34 20.92 *L 0.000392 *D AOI22X1
*I *230:B1 I *C 11.96 20.75 *L 0.000392 *D AOI222X1

*CAP
1 *230:B1 5.31673e-05
2 *275:Y 4.82798e-06
3 *268:A 4.41074e-06
4 *259:B1 2.06232e-05
5 *256:B1 4.49419e-05
6 *24:5 8.44598e-05
7 *24:6 0.000303507
8 *24:7 0.000572622
9 *24:8 0.000430644

*RES
1 *256:B1 *24:8 13.7442
2 *259:B1 *24:7 7.08151
3 *24:6 *24:5 8.36325
4 *24:7 *24:6 4.11987
5 *24:8 *24:7 26.8549
6 *268:A *24:6 6.66988
7 *24:5 *275:Y 0.16582
8 *230:B1 *24:8 14.0467
*END

*D_NET *25 0.00142062

*CONN
*I *274:Y O *C 11.75 3.81 *L 0 *D OR2X1
*I *258:A1 I *C 10.79 17.32 *L 0.000212 *D OA21X1
*I *252:A1 I *C 12.19 10.48 *L 0.000212 *D OA21X1
*I *251:A1 I *C 12.64 17.55 *L 0.000391 *D OAI21X1
*I *232:A1 I *C 12.07 9.005 *L 0.00161 *D OAI222X4

*CAP
1 *251:A1 6.02007e-05
2 *252:A1 7.92742e-06
3 *274:Y 2.94447e-05
4 *232:A1 4.64916e-06
5 *258:A1 6.60419e-05
6 *25:5 0.000409424
7 *25:6 0.000169992
8 *25:7 0.000240445
9 *25:8 0.000432491

*RES
1 *258:A1 *25:8 14.0467
2 *25:7 *25:6 3.17872
3 *232:A1 *25:7 6.66988
4 *25:6 *274:Y 7.22551
5 *25:8 *25:5 25.4791
6 *25:5 *25:7 14.746
7 *252:A1 *25:5 6.66988
8 *251:A1 *25:8 13.8955
*END

*D_NET *26 0.00176752

*CONN
*I *262:Y O *C 16.755 17.53 *L 0 *D NAND2X1
*I *220:B0 I *C 16.7 7.505 *L 0.00039 *D AOI221X1
*I *200:A0 I *C 18.56 12.58 *L 0.000212 *D AOI211XL
*I *189:A0 I *C 19.36 19.42 *L 0.000212 *D AOI211XL
*I *185:B0 I *C 16.9 19.095 *L 0.00039 *D AOI221X1

*CAP
1 *189:A0 0.000135064
2 *200:A0 8.40425e-06
3 *185:B0 3.19481e-05
4 *220:B0 6.33001e-05
5 *262:Y 0.000172853
6 *26:5 0.000224829
7 *26:6 0.000480592
8 *26:7 0.000310123
9 *26:8 0.000340402

*RES
1 *26:8 *262:Y 8.66187
2 *26:7 *26:6 30.4586
3 *220:B0 *26:7 7.43341
4 *26:5 *262:Y 14.2356
5 *185:B0 *26:5 13.5779
6 *26:6 *26:8 16.9929
7 *200:A0 *26:6 6.7153
8 *189:A0 *26:5 15.415
*END

*D_NET *27 0.0014205

*CONN
*I *285:Y O *C 9.535 6.83 *L 0 *D OAI2BB1X1
*I *241:A0 I *C 17.145 10.505 *L 0.000392 *D OAI22X1
*I *240:A0 I *C 16.345 9.255 *L 0.000392 *D OAI22X1
*I *236:B0 I *C 9.34 9.225 *L 0.00079 *D OAI222X2
*I *210:B0 I *C 19.1 7.315 *L 0.00039 *D OAI221X1

*CAP
1 *210:B0 9.91821e-05
2 *241:A0 2.39015e-05
3 *240:A0 4.94719e-06
4 *285:Y 4.42266e-05
5 *236:B0 1.94907e-05
6 *27:5 0.000166833
7 *27:6 0.000198424
8 *27:7 0.000455797
9 *27:8 0.000407696

*RES
1 *236:B0 *27:8 6.85894
2 *27:8 *285:Y 7.28977
3 *27:7 *27:8 19.4101
4 *240:A0 *27:7 6.66988
5 *27:6 *27:7 8.41236
6 *241:A0 *27:6 13.5779
7 *210:B0 *27:5 8.72612
8 *27:5 *27:6 8.1327
*END

*D_NET *28 0.00113964

*CONN
*P *28 I *C 0 12 *L 0
*I *306:A I *C 5.9 7.505 *L 0.000395 *D INVX1
*I *302:A I *C 4.7 10.735 *L 0.00039 *D NAND2X1
*I *297:A I *C 5.1 9.025 *L 0.00039 *D NAND2X1
*I *244:A0 I *C 3.94 4.175 *L 0.000392 *D AOI221X1

*CAP
1 *306:A 4.29153e-06
2 *297:A 1.56164e-05
3 *28 0.000178516
4 *244:A0 0.00020051
5 *28:5 0.000244915
6 *28:6 0.000186503
7 *28:7 0.000309288

*RES
1 *244:A0 *28:7 23.7668
2 *28:6 *28:5 7.86436
3 *28:5 *28 18.1242
4 *302:A *28:5 0.5
5 *297:A *28:6 7.08151
6 *28:7 *28:6 15.1994
7 *306:A *28:7 6.66988
*END

*D_NET *30 0.00109053

*CONN
*I *296:Y O *C 8.55 3.81 *L 0 *D OR2X1
*I *279:A I *C 8.815 5.58 *L 0.000793 *D NOR2X2
*I *278:B I *C 6.975 3.665 *L 0.000392 *D NOR2X1
*I *276:A I *C 15.5 5.415 *L 0.000392 *D NOR2X1
*I *255:A0 I *C 14.5 5.795 *L 0.000391 *D OAI211X1

*CAP
1 *276:A 5.31077e-05
2 *255:A0 3.82066e-05
3 *279:A 1.75238e-05
4 *296:Y 1.62721e-05
5 *278:B 5.82337e-05
6 *30:5 0.000365734
7 *30:6 0.000379443
8 *30:7 0.000162005

*RES
1 *278:B *30:7 14.349
2 *30:6 *30:7 8.04198
3 *30:7 *296:Y 13.4419
4 *279:A *30:6 6.85894
5 *30:5 *30:6 11.9275
6 *255:A0 *30:5 13.7216
7 *276:A *30:5 14.1639
*END

*D_NET *31 0.00107729

*CONN
*I *297:Y O *C 5.555 9.07 *L 0 *D NAND2X1
*I *285:B0 I *C 9.665 7.275 *L 0.00039 *D OAI2BB1X1
*I *248:A I *C 7.415 10.695 *L 0.000211 *D XNOR2X1
*I *239:A1 I *C 5.725 10.6875 *L 0.000212 *D OA22X1
*I *232:A0 I *C 12.34 9.225 *L 0.00161 *D OAI222X4

*CAP
1 *232:A0 0.000105679
2 *285:B0 0.000123262
3 *248:A 8.64267e-06
4 *239:A1 7.86781e-06
5 *297:Y 8.5175e-05
6 *31:5 0.000214398
7 *31:6 0.00013262